/*--------------------------------*- C++ -*----------------------------------*\
| =========                 |                                                 |
| \\      /  F ield         | OpenFOAM: The Open Source CFD Toolbox           |
|  \\    /   O peration     | Version:  4.x                                   |
|   \\  /    A nd           | Web:      www.OpenFOAM.org                      |
|    \\/     M anipulation  |                                                 |
\*---------------------------------------------------------------------------*/
FoamFile
{
    version     2.0;
    format      ascii;
    class       extendedFeatureEdgeMesh;
    location    "constant/extendedFeatureEdgeMesh";
    object      ribbon.extendedFeatureEdgeMesh;
}
// * * * * * * * * * * * * * * * * * * * * * * * * * * * * * * * * * * * * * //

// points

11989
(
(0.463527 -0.2 -0.5)
(0.463525 -0.20046 -0.5)
(0.463527 -0.2 0.5)
(0.463525 -0.20046 0.5)
(0.463521 -0.200921 -0.5)
(0.463521 -0.200921 0.5)
(0.463514 -0.201381 -0.5)
(0.463514 -0.201381 0.5)
(0.463503 -0.201841 -0.5)
(0.463503 -0.201841 0.5)
(0.46349 -0.202301 -0.5)
(0.46349 -0.202301 0.5)
(0.463475 -0.202761 -0.5)
(0.463475 -0.202761 0.5)
(0.463456 -0.203221 -0.5)
(0.463456 -0.203221 0.5)
(0.463434 -0.203681 -0.5)
(0.463434 -0.203681 0.5)
(0.463409 -0.20414 -0.5)
(0.463409 -0.20414 0.5)
(0.463382 -0.2046 -0.5)
(0.463382 -0.2046 0.5)
(0.463352 -0.205059 -0.5)
(0.463352 -0.205059 0.5)
(0.463318 -0.205518 -0.5)
(0.463318 -0.205518 0.5)
(0.463282 -0.205977 -0.5)
(0.463282 -0.205977 0.5)
(0.463243 -0.206436 -0.5)
(0.463243 -0.206436 0.5)
(0.463201 -0.206894 -0.5)
(0.463201 -0.206894 0.5)
(0.463156 -0.207352 -0.5)
(0.463156 -0.207352 0.5)
(0.463109 -0.20781 -0.5)
(0.463109 -0.20781 0.5)
(0.463058 -0.208268 -0.5)
(0.463058 -0.208268 0.5)
(0.463005 -0.208725 -0.5)
(0.463005 -0.208725 0.5)
(0.462948 -0.209182 -0.5)
(0.462948 -0.209182 0.5)
(0.462889 -0.209638 -0.5)
(0.462889 -0.209638 0.5)
(0.462827 -0.210094 -0.5)
(0.462827 -0.210094 0.5)
(0.462762 -0.21055 -0.5)
(0.462762 -0.21055 0.5)
(0.462694 -0.211005 -0.5)
(0.462694 -0.211005 0.5)
(0.462624 -0.21146 -0.5)
(0.462624 -0.21146 0.5)
(0.46255 -0.211914 -0.5)
(0.46255 -0.211914 0.5)
(0.462474 -0.212368 -0.5)
(0.462474 -0.212368 0.5)
(0.462395 -0.212822 -0.5)
(0.462395 -0.212822 0.5)
(0.462313 -0.213275 -0.5)
(0.462313 -0.213275 0.5)
(0.462228 -0.213727 -0.5)
(0.462228 -0.213727 0.5)
(0.46214 -0.214179 -0.5)
(0.46214 -0.214179 0.5)
(0.462049 -0.21463 -0.5)
(0.462049 -0.21463 0.5)
(0.461956 -0.215081 -0.5)
(0.461956 -0.215081 0.5)
(0.46186 -0.215531 -0.5)
(0.46186 -0.215531 0.5)
(0.461761 -0.215981 -0.5)
(0.461761 -0.215981 0.5)
(0.461659 -0.216429 -0.5)
(0.461659 -0.216429 0.5)
(0.461554 -0.216878 -0.5)
(0.461554 -0.216878 0.5)
(0.461446 -0.217325 -0.5)
(0.461446 -0.217325 0.5)
(0.461336 -0.217772 -0.5)
(0.461336 -0.217772 0.5)
(0.461223 -0.218218 -0.5)
(0.461223 -0.218218 0.5)
(0.461107 -0.218664 -0.5)
(0.461107 -0.218664 0.5)
(0.460988 -0.219108 -0.5)
(0.460988 -0.219108 0.5)
(0.460866 -0.219552 -0.5)
(0.460866 -0.219552 0.5)
(0.460742 -0.219995 -0.5)
(0.460742 -0.219995 0.5)
(0.460615 -0.220438 -0.5)
(0.460615 -0.220438 0.5)
(0.460485 -0.220879 -0.5)
(0.460485 -0.220879 0.5)
(0.460352 -0.22132 -0.5)
(0.460352 -0.22132 0.5)
(0.460217 -0.22176 -0.5)
(0.460217 -0.22176 0.5)
(0.460079 -0.222199 -0.5)
(0.460079 -0.222199 0.5)
(0.459938 -0.222637 -0.5)
(0.459938 -0.222637 0.5)
(0.459794 -0.223075 -0.5)
(0.459794 -0.223075 0.5)
(0.459647 -0.223511 -0.5)
(0.459647 -0.223511 0.5)
(0.459498 -0.223946 -0.5)
(0.459498 -0.223946 0.5)
(0.459346 -0.224381 -0.5)
(0.459346 -0.224381 0.5)
(0.459191 -0.224814 -0.5)
(0.459191 -0.224814 0.5)
(0.459034 -0.225247 -0.5)
(0.459034 -0.225247 0.5)
(0.458874 -0.225678 -0.5)
(0.458874 -0.225678 0.5)
(0.458711 -0.226109 -0.5)
(0.458711 -0.226109 0.5)
(0.458545 -0.226538 -0.5)
(0.458545 -0.226538 0.5)
(0.458377 -0.226967 -0.5)
(0.458377 -0.226967 0.5)
(0.458206 -0.227394 -0.5)
(0.458206 -0.227394 0.5)
(0.458033 -0.227821 -0.5)
(0.458033 -0.227821 0.5)
(0.457856 -0.228246 -0.5)
(0.457856 -0.228246 0.5)
(0.457677 -0.22867 -0.5)
(0.457677 -0.22867 0.5)
(0.457496 -0.229093 -0.5)
(0.457496 -0.229093 0.5)
(0.457311 -0.229514 -0.5)
(0.457311 -0.229514 0.5)
(0.457124 -0.229935 -0.5)
(0.457124 -0.229935 0.5)
(0.456935 -0.230355 -0.5)
(0.456935 -0.230355 0.5)
(0.456742 -0.230773 -0.5)
(0.456742 -0.230773 0.5)
(0.456548 -0.23119 -0.5)
(0.456548 -0.23119 0.5)
(0.45635 -0.231606 -0.5)
(0.45635 -0.231606 0.5)
(0.45615 -0.23202 -0.5)
(0.45615 -0.23202 0.5)
(0.455947 -0.232433 -0.5)
(0.455947 -0.232433 0.5)
(0.455742 -0.232845 -0.5)
(0.455742 -0.232845 0.5)
(0.455534 -0.233256 -0.5)
(0.455534 -0.233256 0.5)
(0.455324 -0.233665 -0.5)
(0.455324 -0.233665 0.5)
(0.455111 -0.234073 -0.5)
(0.455111 -0.234073 0.5)
(0.454895 -0.23448 -0.5)
(0.454895 -0.23448 0.5)
(0.454677 -0.234885 -0.5)
(0.454677 -0.234885 0.5)
(0.454456 -0.235289 -0.5)
(0.454456 -0.235289 0.5)
(0.454233 -0.235692 -0.5)
(0.454233 -0.235692 0.5)
(0.454007 -0.236093 -0.5)
(0.454007 -0.236093 0.5)
(0.453779 -0.236493 -0.5)
(0.453779 -0.236493 0.5)
(0.453548 -0.236891 -0.5)
(0.453548 -0.236891 0.5)
(0.453315 -0.237288 -0.5)
(0.453315 -0.237288 0.5)
(0.453079 -0.237683 -0.5)
(0.453079 -0.237683 0.5)
(0.452841 -0.238077 -0.5)
(0.452841 -0.238077 0.5)
(0.4526 -0.238469 -0.5)
(0.4526 -0.238469 0.5)
(0.452357 -0.23886 -0.5)
(0.452357 -0.23886 0.5)
(0.452112 -0.239249 -0.5)
(0.452112 -0.239249 0.5)
(0.451863 -0.239637 -0.5)
(0.451863 -0.239637 0.5)
(0.451613 -0.240023 -0.5)
(0.451613 -0.240023 0.5)
(0.45136 -0.240408 -0.5)
(0.45136 -0.240408 0.5)
(0.451105 -0.240791 -0.5)
(0.451105 -0.240791 0.5)
(0.450847 -0.241172 -0.5)
(0.450847 -0.241172 0.5)
(0.450587 -0.241552 -0.5)
(0.450587 -0.241552 0.5)
(0.450324 -0.24193 -0.5)
(0.450324 -0.24193 0.5)
(0.450059 -0.242306 -0.5)
(0.450059 -0.242306 0.5)
(0.449792 -0.242681 -0.5)
(0.449792 -0.242681 0.5)
(0.449522 -0.243054 -0.5)
(0.449522 -0.243054 0.5)
(0.44925 -0.243426 -0.5)
(0.44925 -0.243426 0.5)
(0.448976 -0.243795 -0.5)
(0.448976 -0.243795 0.5)
(0.4487 -0.244163 -0.5)
(0.4487 -0.244163 0.5)
(0.448421 -0.244529 -0.5)
(0.448421 -0.244529 0.5)
(0.448139 -0.244894 -0.5)
(0.448139 -0.244894 0.5)
(0.447856 -0.245256 -0.5)
(0.447856 -0.245256 0.5)
(0.44757 -0.245617 -0.5)
(0.44757 -0.245617 0.5)
(0.447282 -0.245976 -0.5)
(0.447282 -0.245976 0.5)
(0.446992 -0.246333 -0.5)
(0.446992 -0.246333 0.5)
(0.446699 -0.246689 -0.5)
(0.446699 -0.246689 0.5)
(0.446405 -0.247042 -0.5)
(0.446405 -0.247042 0.5)
(0.446108 -0.247394 -0.5)
(0.446108 -0.247394 0.5)
(0.445808 -0.247744 -0.5)
(0.445808 -0.247744 0.5)
(0.445507 -0.248092 -0.5)
(0.445507 -0.248092 0.5)
(0.445203 -0.248438 -0.5)
(0.445203 -0.248438 0.5)
(0.444898 -0.248782 -0.5)
(0.444898 -0.248782 0.5)
(0.44459 -0.249124 -0.5)
(0.44459 -0.249124 0.5)
(0.44428 -0.249464 -0.5)
(0.44428 -0.249464 0.5)
(0.443968 -0.249803 -0.5)
(0.443968 -0.249803 0.5)
(0.443653 -0.250139 -0.5)
(0.443653 -0.250139 0.5)
(0.443337 -0.250473 -0.5)
(0.443337 -0.250473 0.5)
(0.443018 -0.250805 -0.5)
(0.443018 -0.250805 0.5)
(0.442698 -0.251136 -0.5)
(0.442698 -0.251136 0.5)
(0.442375 -0.251464 -0.5)
(0.442375 -0.251464 0.5)
(0.442051 -0.25179 -0.5)
(0.442051 -0.25179 0.5)
(0.441724 -0.252114 -0.5)
(0.441724 -0.252114 0.5)
(0.441395 -0.252437 -0.5)
(0.441395 -0.252437 0.5)
(0.441064 -0.252757 -0.5)
(0.441064 -0.252757 0.5)
(0.440731 -0.253075 -0.5)
(0.440731 -0.253075 0.5)
(0.440397 -0.25339 -0.5)
(0.440397 -0.25339 0.5)
(0.44006 -0.253704 -0.5)
(0.44006 -0.253704 0.5)
(0.439721 -0.254016 -0.5)
(0.439721 -0.254016 0.5)
(0.43938 -0.254325 -0.5)
(0.43938 -0.254325 0.5)
(0.439038 -0.254633 -0.5)
(0.439038 -0.254633 0.5)
(0.438693 -0.254938 -0.5)
(0.438693 -0.254938 0.5)
(0.438347 -0.255241 -0.5)
(0.438347 -0.255241 0.5)
(0.437998 -0.255542 -0.5)
(0.437998 -0.255542 0.5)
(0.437648 -0.25584 -0.5)
(0.437648 -0.25584 0.5)
(0.437296 -0.256137 -0.5)
(0.437296 -0.256137 0.5)
(0.436942 -0.256431 -0.5)
(0.436942 -0.256431 0.5)
(0.436586 -0.256723 -0.5)
(0.436586 -0.256723 0.5)
(0.436228 -0.257013 -0.5)
(0.436228 -0.257013 0.5)
(0.435869 -0.2573 -0.5)
(0.435869 -0.2573 0.5)
(0.435508 -0.257585 -0.5)
(0.435508 -0.257585 0.5)
(0.435144 -0.257868 -0.5)
(0.435144 -0.257868 0.5)
(0.43478 -0.258149 -0.5)
(0.43478 -0.258149 0.5)
(0.434413 -0.258427 -0.5)
(0.434413 -0.258427 0.5)
(0.434045 -0.258703 -0.5)
(0.434045 -0.258703 0.5)
(0.433675 -0.258977 -0.5)
(0.433675 -0.258977 0.5)
(0.433303 -0.259248 -0.5)
(0.433303 -0.259248 0.5)
(0.432929 -0.259517 -0.5)
(0.432929 -0.259517 0.5)
(0.432554 -0.259784 -0.5)
(0.432554 -0.259784 0.5)
(0.432177 -0.260048 -0.5)
(0.432177 -0.260048 0.5)
(0.431799 -0.26031 -0.5)
(0.431799 -0.26031 0.5)
(0.431419 -0.26057 -0.5)
(0.431419 -0.26057 0.5)
(0.431037 -0.260827 -0.5)
(0.431037 -0.260827 0.5)
(0.430654 -0.261082 -0.5)
(0.430654 -0.261082 0.5)
(0.430269 -0.261334 -0.5)
(0.430269 -0.261334 0.5)
(0.429882 -0.261584 -0.5)
(0.429882 -0.261584 0.5)
(0.429494 -0.261832 -0.5)
(0.429494 -0.261832 0.5)
(0.429104 -0.262077 -0.5)
(0.429104 -0.262077 0.5)
(0.428713 -0.262319 -0.5)
(0.428713 -0.262319 0.5)
(0.42832 -0.262559 -0.5)
(0.42832 -0.262559 0.5)
(0.427926 -0.262797 -0.5)
(0.427926 -0.262797 0.5)
(0.42753 -0.263032 -0.5)
(0.42753 -0.263032 0.5)
(0.427133 -0.263265 -0.5)
(0.427133 -0.263265 0.5)
(0.426735 -0.263495 -0.5)
(0.426735 -0.263495 0.5)
(0.426335 -0.263722 -0.5)
(0.426335 -0.263722 0.5)
(0.425933 -0.263948 -0.5)
(0.425933 -0.263948 0.5)
(0.42553 -0.26417 -0.5)
(0.42553 -0.26417 0.5)
(0.425126 -0.26439 -0.5)
(0.425126 -0.26439 0.5)
(0.42472 -0.264608 -0.5)
(0.42472 -0.264608 0.5)
(0.424313 -0.264823 -0.5)
(0.424313 -0.264823 0.5)
(0.423905 -0.265035 -0.5)
(0.423905 -0.265035 0.5)
(0.423495 -0.265245 -0.5)
(0.423495 -0.265245 0.5)
(0.423084 -0.265452 -0.5)
(0.423084 -0.265452 0.5)
(0.422672 -0.265657 -0.5)
(0.422672 -0.265657 0.5)
(0.422258 -0.265859 -0.5)
(0.422258 -0.265859 0.5)
(0.421843 -0.266058 -0.5)
(0.421843 -0.266058 0.5)
(0.421427 -0.266255 -0.5)
(0.421427 -0.266255 0.5)
(0.42101 -0.266449 -0.5)
(0.42101 -0.266449 0.5)
(0.420591 -0.266641 -0.5)
(0.420591 -0.266641 0.5)
(0.420172 -0.26683 -0.5)
(0.420172 -0.26683 0.5)
(0.419751 -0.267016 -0.5)
(0.419751 -0.267016 0.5)
(0.419329 -0.2672 -0.5)
(0.419329 -0.2672 0.5)
(0.418905 -0.267381 -0.5)
(0.418905 -0.267381 0.5)
(0.418481 -0.267559 -0.5)
(0.418481 -0.267559 0.5)
(0.418056 -0.267735 -0.5)
(0.418056 -0.267735 0.5)
(0.417629 -0.267908 -0.5)
(0.417629 -0.267908 0.5)
(0.417201 -0.268078 -0.5)
(0.417201 -0.268078 0.5)
(0.416773 -0.268245 -0.5)
(0.416773 -0.268245 0.5)
(0.416343 -0.26841 -0.5)
(0.416343 -0.26841 0.5)
(0.415912 -0.268572 -0.5)
(0.415912 -0.268572 0.5)
(0.41548 -0.268732 -0.5)
(0.41548 -0.268732 0.5)
(0.415048 -0.268889 -0.5)
(0.415048 -0.268889 0.5)
(0.414614 -0.269043 -0.5)
(0.414614 -0.269043 0.5)
(0.414179 -0.269194 -0.5)
(0.414179 -0.269194 0.5)
(0.413744 -0.269343 -0.5)
(0.413744 -0.269343 0.5)
(0.413307 -0.269488 -0.5)
(0.413307 -0.269488 0.5)
(0.412869 -0.269631 -0.5)
(0.412869 -0.269631 0.5)
(0.412431 -0.269772 -0.5)
(0.412431 -0.269772 0.5)
(0.411992 -0.269909 -0.5)
(0.411992 -0.269909 0.5)
(0.411552 -0.270044 -0.5)
(0.411552 -0.270044 0.5)
(0.411111 -0.270176 -0.5)
(0.411111 -0.270176 0.5)
(0.410669 -0.270305 -0.5)
(0.410669 -0.270305 0.5)
(0.410226 -0.270432 -0.5)
(0.410226 -0.270432 0.5)
(0.409783 -0.270555 -0.5)
(0.409783 -0.270555 0.5)
(0.409339 -0.270676 -0.5)
(0.409339 -0.270676 0.5)
(0.408894 -0.270794 -0.5)
(0.408894 -0.270794 0.5)
(0.408448 -0.27091 -0.5)
(0.408448 -0.27091 0.5)
(0.408002 -0.271022 -0.5)
(0.408002 -0.271022 0.5)
(0.407555 -0.271132 -0.5)
(0.407555 -0.271132 0.5)
(0.407107 -0.271239 -0.5)
(0.407107 -0.271239 0.5)
(0.406659 -0.271343 -0.5)
(0.406659 -0.271343 0.5)
(0.40621 -0.271444 -0.5)
(0.40621 -0.271444 0.5)
(0.40576 -0.271542 -0.5)
(0.40576 -0.271542 0.5)
(0.40531 -0.271638 -0.5)
(0.40531 -0.271638 0.5)
(0.404859 -0.271731 -0.5)
(0.404859 -0.271731 0.5)
(0.404408 -0.271821 -0.5)
(0.404408 -0.271821 0.5)
(0.403956 -0.271908 -0.5)
(0.403956 -0.271908 0.5)
(0.403503 -0.271992 -0.5)
(0.403503 -0.271992 0.5)
(0.40305 -0.272073 -0.5)
(0.40305 -0.272073 0.5)
(0.402597 -0.272152 -0.5)
(0.402597 -0.272152 0.5)
(0.402142 -0.272227 -0.5)
(0.402142 -0.272227 0.5)
(0.401688 -0.2723 -0.5)
(0.401688 -0.2723 0.5)
(0.401233 -0.27237 -0.5)
(0.401233 -0.27237 0.5)
(0.400778 -0.272437 -0.5)
(0.400778 -0.272437 0.5)
(0.400322 -0.272501 -0.5)
(0.400322 -0.272501 0.5)
(0.399866 -0.272563 -0.5)
(0.399866 -0.272563 0.5)
(0.399409 -0.272621 -0.5)
(0.399409 -0.272621 0.5)
(0.398952 -0.272677 -0.5)
(0.398952 -0.272677 0.5)
(0.398495 -0.272729 -0.5)
(0.398495 -0.272729 0.5)
(0.398037 -0.272779 -0.5)
(0.398037 -0.272779 0.5)
(0.397579 -0.272826 -0.5)
(0.397579 -0.272826 0.5)
(0.397121 -0.27287 -0.5)
(0.397121 -0.27287 0.5)
(0.396663 -0.272911 -0.5)
(0.396663 -0.272911 0.5)
(0.396204 -0.27295 -0.5)
(0.396204 -0.27295 0.5)
(0.395745 -0.272985 -0.5)
(0.395745 -0.272985 0.5)
(0.395286 -0.273018 -0.5)
(0.395286 -0.273018 0.5)
(0.394827 -0.273047 -0.5)
(0.394827 -0.273047 0.5)
(0.394367 -0.273074 -0.5)
(0.394367 -0.273074 0.5)
(0.393908 -0.273098 -0.5)
(0.393908 -0.273098 0.5)
(0.393448 -0.273119 -0.5)
(0.393448 -0.273119 0.5)
(0.392988 -0.273137 -0.5)
(0.392988 -0.273137 0.5)
(0.392528 -0.273152 -0.5)
(0.392528 -0.273152 0.5)
(0.392068 -0.273165 -0.5)
(0.392068 -0.273165 0.5)
(0.391607 -0.273174 -0.5)
(0.391607 -0.273174 0.5)
(0.391147 -0.273181 -0.5)
(0.391147 -0.273181 0.5)
(0.390687 -0.273184 -0.5)
(0.390687 -0.273184 0.5)
(0.390227 -0.273185 -0.5)
(0.390227 -0.273185 0.5)
(0.389766 -0.273183 -0.5)
(0.389766 -0.273183 0.5)
(0.389306 -0.273178 -0.5)
(0.389306 -0.273178 0.5)
(0.388846 -0.27317 -0.5)
(0.388846 -0.27317 0.5)
(0.388386 -0.273159 -0.5)
(0.388386 -0.273159 0.5)
(0.387926 -0.273145 -0.5)
(0.387926 -0.273145 0.5)
(0.387466 -0.273128 -0.5)
(0.387466 -0.273128 0.5)
(0.387006 -0.273109 -0.5)
(0.387006 -0.273109 0.5)
(0.386546 -0.273086 -0.5)
(0.386546 -0.273086 0.5)
(0.386086 -0.273061 -0.5)
(0.386086 -0.273061 0.5)
(0.385627 -0.273033 -0.5)
(0.385627 -0.273033 0.5)
(0.385168 -0.273002 -0.5)
(0.385168 -0.273002 0.5)
(0.384709 -0.272968 -0.5)
(0.384709 -0.272968 0.5)
(0.38425 -0.272931 -0.5)
(0.38425 -0.272931 0.5)
(0.383791 -0.272891 -0.5)
(0.383791 -0.272891 0.5)
(0.383333 -0.272849 -0.5)
(0.383333 -0.272849 0.5)
(0.382875 -0.272803 -0.5)
(0.382875 -0.272803 0.5)
(0.382417 -0.272755 -0.5)
(0.382417 -0.272755 0.5)
(0.38196 -0.272703 -0.5)
(0.38196 -0.272703 0.5)
(0.381503 -0.272649 -0.5)
(0.381503 -0.272649 0.5)
(0.381046 -0.272592 -0.5)
(0.381046 -0.272592 0.5)
(0.380589 -0.272532 -0.5)
(0.380589 -0.272532 0.5)
(0.380133 -0.27247 -0.5)
(0.380133 -0.27247 0.5)
(0.379678 -0.272404 -0.5)
(0.379678 -0.272404 0.5)
(0.379223 -0.272335 -0.5)
(0.379223 -0.272335 0.5)
(0.378768 -0.272264 -0.5)
(0.378768 -0.272264 0.5)
(0.378314 -0.27219 -0.5)
(0.378314 -0.27219 0.5)
(0.37786 -0.272113 -0.5)
(0.37786 -0.272113 0.5)
(0.377407 -0.272033 -0.5)
(0.377407 -0.272033 0.5)
(0.376954 -0.27195 -0.5)
(0.376954 -0.27195 0.5)
(0.376502 -0.271864 -0.5)
(0.376502 -0.271864 0.5)
(0.37605 -0.271776 -0.5)
(0.37605 -0.271776 0.5)
(0.375599 -0.271685 -0.5)
(0.375599 -0.271685 0.5)
(0.375148 -0.27159 -0.5)
(0.375148 -0.27159 0.5)
(0.374698 -0.271493 -0.5)
(0.374698 -0.271493 0.5)
(0.374249 -0.271394 -0.5)
(0.374249 -0.271394 0.5)
(0.3738 -0.271291 -0.5)
(0.3738 -0.271291 0.5)
(0.373352 -0.271186 -0.5)
(0.373352 -0.271186 0.5)
(0.372905 -0.271077 -0.5)
(0.372905 -0.271077 0.5)
(0.372458 -0.270966 -0.5)
(0.372458 -0.270966 0.5)
(0.372012 -0.270852 -0.5)
(0.372012 -0.270852 0.5)
(0.371567 -0.270736 -0.5)
(0.371567 -0.270736 0.5)
(0.371122 -0.270616 -0.5)
(0.371122 -0.270616 0.5)
(0.370678 -0.270494 -0.5)
(0.370678 -0.270494 0.5)
(0.370236 -0.270369 -0.5)
(0.370236 -0.270369 0.5)
(0.369793 -0.270241 -0.5)
(0.369793 -0.270241 0.5)
(0.369352 -0.27011 -0.5)
(0.369352 -0.27011 0.5)
(0.368911 -0.269977 -0.5)
(0.368911 -0.269977 0.5)
(0.368472 -0.269841 -0.5)
(0.368472 -0.269841 0.5)
(0.368033 -0.269702 -0.5)
(0.368033 -0.269702 0.5)
(0.367595 -0.26956 -0.5)
(0.367595 -0.26956 0.5)
(0.367158 -0.269416 -0.5)
(0.367158 -0.269416 0.5)
(0.366722 -0.269269 -0.5)
(0.366722 -0.269269 0.5)
(0.366287 -0.269119 -0.5)
(0.366287 -0.269119 0.5)
(0.365852 -0.268966 -0.5)
(0.365852 -0.268966 0.5)
(0.365419 -0.268811 -0.5)
(0.365419 -0.268811 0.5)
(0.364987 -0.268653 -0.5)
(0.364987 -0.268653 0.5)
(0.364556 -0.268492 -0.5)
(0.364556 -0.268492 0.5)
(0.364125 -0.268328 -0.5)
(0.364125 -0.268328 0.5)
(0.363696 -0.268162 -0.5)
(0.363696 -0.268162 0.5)
(0.363268 -0.267993 -0.5)
(0.363268 -0.267993 0.5)
(0.362841 -0.267821 -0.5)
(0.362841 -0.267821 0.5)
(0.362415 -0.267647 -0.5)
(0.362415 -0.267647 0.5)
(0.36199 -0.26747 -0.5)
(0.36199 -0.26747 0.5)
(0.361566 -0.26729 -0.5)
(0.361566 -0.26729 0.5)
(0.361143 -0.267108 -0.5)
(0.361143 -0.267108 0.5)
(0.360722 -0.266923 -0.5)
(0.360722 -0.266923 0.5)
(0.360302 -0.266736 -0.5)
(0.360302 -0.266736 0.5)
(0.359882 -0.266545 -0.5)
(0.359882 -0.266545 0.5)
(0.359464 -0.266352 -0.5)
(0.359464 -0.266352 0.5)
(0.359048 -0.266157 -0.5)
(0.359048 -0.266157 0.5)
(0.358632 -0.265959 -0.5)
(0.358632 -0.265959 0.5)
(0.358218 -0.265758 -0.5)
(0.358218 -0.265758 0.5)
(0.357805 -0.265555 -0.5)
(0.357805 -0.265555 0.5)
(0.357394 -0.265349 -0.5)
(0.357394 -0.265349 0.5)
(0.356983 -0.26514 -0.5)
(0.356983 -0.26514 0.5)
(0.356574 -0.264929 -0.5)
(0.356574 -0.264929 0.5)
(0.356166 -0.264715 -0.5)
(0.356166 -0.264715 0.5)
(0.35576 -0.264499 -0.5)
(0.35576 -0.264499 0.5)
(0.355355 -0.26428 -0.5)
(0.355355 -0.26428 0.5)
(0.354952 -0.264059 -0.5)
(0.354952 -0.264059 0.5)
(0.354549 -0.263835 -0.5)
(0.354549 -0.263835 0.5)
(0.354149 -0.263609 -0.5)
(0.354149 -0.263609 0.5)
(0.353749 -0.26338 -0.5)
(0.353749 -0.26338 0.5)
(0.353351 -0.263149 -0.5)
(0.353351 -0.263149 0.5)
(0.352955 -0.262915 -0.5)
(0.352955 -0.262915 0.5)
(0.35256 -0.262678 -0.5)
(0.35256 -0.262678 0.5)
(0.352166 -0.262439 -0.5)
(0.352166 -0.262439 0.5)
(0.351774 -0.262198 -0.5)
(0.351774 -0.262198 0.5)
(0.351384 -0.261954 -0.5)
(0.351384 -0.261954 0.5)
(0.350995 -0.261708 -0.5)
(0.350995 -0.261708 0.5)
(0.350608 -0.261459 -0.5)
(0.350608 -0.261459 0.5)
(0.350222 -0.261208 -0.5)
(0.350222 -0.261208 0.5)
(0.349838 -0.260955 -0.5)
(0.349838 -0.260955 0.5)
(0.349455 -0.260699 -0.5)
(0.349455 -0.260699 0.5)
(0.349074 -0.26044 -0.5)
(0.349074 -0.26044 0.5)
(0.348695 -0.26018 -0.5)
(0.348695 -0.26018 0.5)
(0.348317 -0.259917 -0.5)
(0.348317 -0.259917 0.5)
(0.347941 -0.259651 -0.5)
(0.347941 -0.259651 0.5)
(0.347567 -0.259383 -0.5)
(0.347567 -0.259383 0.5)
(0.347194 -0.259113 -0.5)
(0.347194 -0.259113 0.5)
(0.346823 -0.258841 -0.5)
(0.346823 -0.258841 0.5)
(0.346454 -0.258566 -0.5)
(0.346454 -0.258566 0.5)
(0.346087 -0.258288 -0.5)
(0.346087 -0.258288 0.5)
(0.345721 -0.258009 -0.5)
(0.345721 -0.258009 0.5)
(0.345357 -0.257727 -0.5)
(0.345357 -0.257727 0.5)
(0.344995 -0.257443 -0.5)
(0.344995 -0.257443 0.5)
(0.344635 -0.257157 -0.5)
(0.344635 -0.257157 0.5)
(0.344276 -0.256868 -0.5)
(0.344276 -0.256868 0.5)
(0.343919 -0.256577 -0.5)
(0.343919 -0.256577 0.5)
(0.343564 -0.256284 -0.5)
(0.343564 -0.256284 0.5)
(0.343211 -0.255989 -0.5)
(0.343211 -0.255989 0.5)
(0.34286 -0.255691 -0.5)
(0.34286 -0.255691 0.5)
(0.342511 -0.255392 -0.5)
(0.342511 -0.255392 0.5)
(0.342163 -0.25509 -0.5)
(0.342163 -0.25509 0.5)
(0.341818 -0.254786 -0.5)
(0.341818 -0.254786 0.5)
(0.341474 -0.254479 -0.5)
(0.341474 -0.254479 0.5)
(0.341132 -0.254171 -0.5)
(0.341132 -0.254171 0.5)
(0.340793 -0.25386 -0.5)
(0.340793 -0.25386 0.5)
(0.340455 -0.253548 -0.5)
(0.340455 -0.253548 0.5)
(0.340119 -0.253233 -0.5)
(0.340119 -0.253233 0.5)
(0.339785 -0.252916 -0.5)
(0.339785 -0.252916 0.5)
(0.339453 -0.252597 -0.5)
(0.339453 -0.252597 0.5)
(0.339124 -0.252276 -0.5)
(0.339124 -0.252276 0.5)
(0.338796 -0.251953 -0.5)
(0.338796 -0.251953 0.5)
(0.33847 -0.251627 -0.5)
(0.33847 -0.251627 0.5)
(0.338146 -0.2513 -0.5)
(0.338146 -0.2513 0.5)
(0.337825 -0.250971 -0.5)
(0.337825 -0.250971 0.5)
(0.337505 -0.25064 -0.5)
(0.337505 -0.25064 0.5)
(0.337188 -0.250306 -0.5)
(0.337188 -0.250306 0.5)
(0.336873 -0.249971 -0.5)
(0.336873 -0.249971 0.5)
(0.336559 -0.249634 -0.5)
(0.336559 -0.249634 0.5)
(0.336248 -0.249294 -0.5)
(0.336248 -0.249294 0.5)
(0.335939 -0.248953 -0.5)
(0.335939 -0.248953 0.5)
(0.335632 -0.24861 -0.5)
(0.335632 -0.24861 0.5)
(0.335328 -0.248265 -0.5)
(0.335328 -0.248265 0.5)
(0.335025 -0.247918 -0.5)
(0.335025 -0.247918 0.5)
(0.334725 -0.247569 -0.5)
(0.334725 -0.247569 0.5)
(0.334427 -0.247218 -0.5)
(0.334427 -0.247218 0.5)
(0.334131 -0.246866 -0.5)
(0.334131 -0.246866 0.5)
(0.333837 -0.246511 -0.5)
(0.333837 -0.246511 0.5)
(0.333546 -0.246155 -0.5)
(0.333546 -0.246155 0.5)
(0.333257 -0.245797 -0.5)
(0.333257 -0.245797 0.5)
(0.33297 -0.245437 -0.5)
(0.33297 -0.245437 0.5)
(0.332685 -0.245075 -0.5)
(0.332685 -0.245075 0.5)
(0.332403 -0.244712 -0.5)
(0.332403 -0.244712 0.5)
(0.332123 -0.244346 -0.5)
(0.332123 -0.244346 0.5)
(0.331845 -0.243979 -0.5)
(0.331845 -0.243979 0.5)
(0.33157 -0.243611 -0.5)
(0.33157 -0.243611 0.5)
(0.331297 -0.24324 -0.5)
(0.331297 -0.24324 0.5)
(0.331026 -0.242868 -0.5)
(0.331026 -0.242868 0.5)
(0.330757 -0.242494 -0.5)
(0.330757 -0.242494 0.5)
(0.330491 -0.242118 -0.5)
(0.330491 -0.242118 0.5)
(0.330227 -0.241741 -0.5)
(0.330227 -0.241741 0.5)
(0.329966 -0.241362 -0.5)
(0.329966 -0.241362 0.5)
(0.329707 -0.240982 -0.5)
(0.329707 -0.240982 0.5)
(0.329451 -0.2406 -0.5)
(0.329451 -0.2406 0.5)
(0.329197 -0.240216 -0.5)
(0.329197 -0.240216 0.5)
(0.328945 -0.23983 -0.5)
(0.328945 -0.23983 0.5)
(0.328695 -0.239443 -0.5)
(0.328695 -0.239443 0.5)
(0.328449 -0.239055 -0.5)
(0.328449 -0.239055 0.5)
(0.328204 -0.238665 -0.5)
(0.328204 -0.238665 0.5)
(0.327962 -0.238273 -0.5)
(0.327962 -0.238273 0.5)
(0.327723 -0.23788 -0.5)
(0.327723 -0.23788 0.5)
(0.327486 -0.237486 -0.5)
(0.327486 -0.237486 0.5)
(0.327251 -0.23709 -0.5)
(0.327251 -0.23709 0.5)
(0.327019 -0.236692 -0.5)
(0.327019 -0.236692 0.5)
(0.32679 -0.236293 -0.5)
(0.32679 -0.236293 0.5)
(0.326563 -0.235893 -0.5)
(0.326563 -0.235893 0.5)
(0.326338 -0.235491 -0.5)
(0.326338 -0.235491 0.5)
(0.326116 -0.235088 -0.5)
(0.326116 -0.235088 0.5)
(0.325897 -0.234683 -0.5)
(0.325897 -0.234683 0.5)
(0.32568 -0.234277 -0.5)
(0.32568 -0.234277 0.5)
(0.325466 -0.23387 -0.5)
(0.325466 -0.23387 0.5)
(0.325254 -0.233461 -0.5)
(0.325254 -0.233461 0.5)
(0.325045 -0.233051 -0.5)
(0.325045 -0.233051 0.5)
(0.324838 -0.23264 -0.5)
(0.324838 -0.23264 0.5)
(0.324634 -0.232227 -0.5)
(0.324634 -0.232227 0.5)
(0.324433 -0.231813 -0.5)
(0.324433 -0.231813 0.5)
(0.324234 -0.231398 -0.5)
(0.324234 -0.231398 0.5)
(0.324038 -0.230981 -0.5)
(0.324038 -0.230981 0.5)
(0.323844 -0.230564 -0.5)
(0.323844 -0.230564 0.5)
(0.323653 -0.230145 -0.5)
(0.323653 -0.230145 0.5)
(0.323465 -0.229725 -0.5)
(0.323465 -0.229725 0.5)
(0.32328 -0.229304 -0.5)
(0.32328 -0.229304 0.5)
(0.323097 -0.228881 -0.5)
(0.323097 -0.228881 0.5)
(0.322916 -0.228458 -0.5)
(0.322916 -0.228458 0.5)
(0.322739 -0.228033 -0.5)
(0.322739 -0.228033 0.5)
(0.322564 -0.227608 -0.5)
(0.322564 -0.227608 0.5)
(0.322391 -0.227181 -0.5)
(0.322391 -0.227181 0.5)
(0.322222 -0.226753 -0.5)
(0.322222 -0.226753 0.5)
(0.322055 -0.226324 -0.5)
(0.322055 -0.226324 0.5)
(0.321891 -0.225894 -0.5)
(0.321891 -0.225894 0.5)
(0.321729 -0.225463 -0.5)
(0.321729 -0.225463 0.5)
(0.32157 -0.225031 -0.5)
(0.32157 -0.225031 0.5)
(0.321414 -0.224598 -0.5)
(0.321414 -0.224598 0.5)
(0.321261 -0.224164 -0.5)
(0.321261 -0.224164 0.5)
(0.32111 -0.223729 -0.5)
(0.32111 -0.223729 0.5)
(0.320962 -0.223293 -0.5)
(0.320962 -0.223293 0.5)
(0.320817 -0.222856 -0.5)
(0.320817 -0.222856 0.5)
(0.320675 -0.222418 -0.5)
(0.320675 -0.222418 0.5)
(0.320535 -0.22198 -0.5)
(0.320535 -0.22198 0.5)
(0.320398 -0.22154 -0.5)
(0.320398 -0.22154 0.5)
(0.320264 -0.2211 -0.5)
(0.320264 -0.2211 0.5)
(0.320133 -0.220659 -0.5)
(0.320133 -0.220659 0.5)
(0.320004 -0.220217 -0.5)
(0.320004 -0.220217 0.5)
(0.319879 -0.219774 -0.5)
(0.319879 -0.219774 0.5)
(0.319756 -0.21933 -0.5)
(0.319756 -0.21933 0.5)
(0.319636 -0.218886 -0.5)
(0.319636 -0.218886 0.5)
(0.319518 -0.218441 -0.5)
(0.319518 -0.218441 0.5)
(0.319404 -0.217995 -0.5)
(0.319404 -0.217995 0.5)
(0.319292 -0.217549 -0.5)
(0.319292 -0.217549 0.5)
(0.319183 -0.217101 -0.5)
(0.319183 -0.217101 0.5)
(0.319077 -0.216654 -0.5)
(0.319077 -0.216654 0.5)
(0.318973 -0.216205 -0.5)
(0.318973 -0.216205 0.5)
(0.318873 -0.215756 -0.5)
(0.318873 -0.215756 0.5)
(0.318775 -0.215306 -0.5)
(0.318775 -0.215306 0.5)
(0.31868 -0.214856 -0.5)
(0.31868 -0.214856 0.5)
(0.318588 -0.214405 -0.5)
(0.318588 -0.214405 0.5)
(0.318499 -0.213953 -0.5)
(0.318499 -0.213953 0.5)
(0.318413 -0.213501 -0.5)
(0.318413 -0.213501 0.5)
(0.318329 -0.213048 -0.5)
(0.318329 -0.213048 0.5)
(0.318249 -0.212595 -0.5)
(0.318249 -0.212595 0.5)
(0.318171 -0.212141 -0.5)
(0.318171 -0.212141 0.5)
(0.318096 -0.211687 -0.5)
(0.318096 -0.211687 0.5)
(0.318024 -0.211233 -0.5)
(0.318024 -0.211233 0.5)
(0.317955 -0.210778 -0.5)
(0.317955 -0.210778 0.5)
(0.317888 -0.210322 -0.5)
(0.317888 -0.210322 0.5)
(0.317825 -0.209866 -0.5)
(0.317825 -0.209866 0.5)
(0.317764 -0.20941 -0.5)
(0.317764 -0.20941 0.5)
(0.317706 -0.208953 -0.5)
(0.317706 -0.208953 0.5)
(0.317652 -0.208496 -0.5)
(0.317652 -0.208496 0.5)
(0.3176 -0.208039 -0.5)
(0.3176 -0.208039 0.5)
(0.31755 -0.207581 -0.5)
(0.31755 -0.207581 0.5)
(0.317504 -0.207123 -0.5)
(0.317504 -0.207123 0.5)
(0.317461 -0.206665 -0.5)
(0.317461 -0.206665 0.5)
(0.31742 -0.206207 -0.5)
(0.31742 -0.206207 0.5)
(0.317383 -0.205748 -0.5)
(0.317383 -0.205748 0.5)
(0.317348 -0.205289 -0.5)
(0.317348 -0.205289 0.5)
(0.317316 -0.20483 -0.5)
(0.317316 -0.20483 0.5)
(0.317287 -0.20437 -0.5)
(0.317287 -0.20437 0.5)
(0.317261 -0.203911 -0.5)
(0.317261 -0.203911 0.5)
(0.317238 -0.203451 -0.5)
(0.317238 -0.203451 0.5)
(0.317218 -0.202991 -0.5)
(0.317218 -0.202991 0.5)
(0.3172 -0.202531 -0.5)
(0.3172 -0.202531 0.5)
(0.317186 -0.202071 -0.5)
(0.317186 -0.202071 0.5)
(0.317174 -0.201611 -0.5)
(0.317174 -0.201611 0.5)
(0.317166 -0.201151 -0.5)
(0.317166 -0.201151 0.5)
(0.31716 -0.20069 -0.5)
(0.31716 -0.20069 0.5)
(0.317157 -0.20023 -0.5)
(0.317157 -0.20023 0.5)
(0.317157 -0.19977 -0.5)
(0.317157 -0.19977 0.5)
(0.31716 -0.19931 -0.5)
(0.31716 -0.19931 0.5)
(0.317166 -0.198849 -0.5)
(0.317166 -0.198849 0.5)
(0.317174 -0.198389 -0.5)
(0.317174 -0.198389 0.5)
(0.317186 -0.197929 -0.5)
(0.317186 -0.197929 0.5)
(0.3172 -0.197469 -0.5)
(0.3172 -0.197469 0.5)
(0.317218 -0.197009 -0.5)
(0.317218 -0.197009 0.5)
(0.317238 -0.196549 -0.5)
(0.317238 -0.196549 0.5)
(0.317261 -0.196089 -0.5)
(0.317261 -0.196089 0.5)
(0.317287 -0.19563 -0.5)
(0.317287 -0.19563 0.5)
(0.317316 -0.19517 -0.5)
(0.317316 -0.19517 0.5)
(0.317348 -0.194711 -0.5)
(0.317348 -0.194711 0.5)
(0.317383 -0.194252 -0.5)
(0.317383 -0.194252 0.5)
(0.31742 -0.193793 -0.5)
(0.31742 -0.193793 0.5)
(0.317461 -0.193335 -0.5)
(0.317461 -0.193335 0.5)
(0.317504 -0.192877 -0.5)
(0.317504 -0.192877 0.5)
(0.31755 -0.192419 -0.5)
(0.31755 -0.192419 0.5)
(0.3176 -0.191961 -0.5)
(0.3176 -0.191961 0.5)
(0.317652 -0.191504 -0.5)
(0.317652 -0.191504 0.5)
(0.317706 -0.191047 -0.5)
(0.317706 -0.191047 0.5)
(0.317764 -0.19059 -0.5)
(0.317764 -0.19059 0.5)
(0.317825 -0.190134 -0.5)
(0.317825 -0.190134 0.5)
(0.317888 -0.189678 -0.5)
(0.317888 -0.189678 0.5)
(0.317955 -0.189222 -0.5)
(0.317955 -0.189222 0.5)
(0.318024 -0.188767 -0.5)
(0.318024 -0.188767 0.5)
(0.318096 -0.188313 -0.5)
(0.318096 -0.188313 0.5)
(0.318171 -0.187859 -0.5)
(0.318171 -0.187859 0.5)
(0.318249 -0.187405 -0.5)
(0.318249 -0.187405 0.5)
(0.318329 -0.186952 -0.5)
(0.318329 -0.186952 0.5)
(0.318413 -0.186499 -0.5)
(0.318413 -0.186499 0.5)
(0.318499 -0.186047 -0.5)
(0.318499 -0.186047 0.5)
(0.318588 -0.185595 -0.5)
(0.318588 -0.185595 0.5)
(0.31868 -0.185144 -0.5)
(0.31868 -0.185144 0.5)
(0.318775 -0.184694 -0.5)
(0.318775 -0.184694 0.5)
(0.318873 -0.184244 -0.5)
(0.318873 -0.184244 0.5)
(0.318973 -0.183795 -0.5)
(0.318973 -0.183795 0.5)
(0.319077 -0.183346 -0.5)
(0.319077 -0.183346 0.5)
(0.319183 -0.182899 -0.5)
(0.319183 -0.182899 0.5)
(0.319292 -0.182451 -0.5)
(0.319292 -0.182451 0.5)
(0.319404 -0.182005 -0.5)
(0.319404 -0.182005 0.5)
(0.319518 -0.181559 -0.5)
(0.319518 -0.181559 0.5)
(0.319636 -0.181114 -0.5)
(0.319636 -0.181114 0.5)
(0.319756 -0.18067 -0.5)
(0.319756 -0.18067 0.5)
(0.319879 -0.180226 -0.5)
(0.319879 -0.180226 0.5)
(0.320004 -0.179783 -0.5)
(0.320004 -0.179783 0.5)
(0.320133 -0.179341 -0.5)
(0.320133 -0.179341 0.5)
(0.320264 -0.1789 -0.5)
(0.320264 -0.1789 0.5)
(0.320398 -0.17846 -0.5)
(0.320398 -0.17846 0.5)
(0.320535 -0.17802 -0.5)
(0.320535 -0.17802 0.5)
(0.320675 -0.177582 -0.5)
(0.320675 -0.177582 0.5)
(0.320817 -0.177144 -0.5)
(0.320817 -0.177144 0.5)
(0.320962 -0.176707 -0.5)
(0.320962 -0.176707 0.5)
(0.32111 -0.176271 -0.5)
(0.32111 -0.176271 0.5)
(0.321261 -0.175836 -0.5)
(0.321261 -0.175836 0.5)
(0.321414 -0.175402 -0.5)
(0.321414 -0.175402 0.5)
(0.32157 -0.174969 -0.5)
(0.32157 -0.174969 0.5)
(0.321729 -0.174537 -0.5)
(0.321729 -0.174537 0.5)
(0.321891 -0.174106 -0.5)
(0.321891 -0.174106 0.5)
(0.322055 -0.173676 -0.5)
(0.322055 -0.173676 0.5)
(0.322222 -0.173247 -0.5)
(0.322222 -0.173247 0.5)
(0.322391 -0.172819 -0.5)
(0.322391 -0.172819 0.5)
(0.322564 -0.172392 -0.5)
(0.322564 -0.172392 0.5)
(0.322739 -0.171967 -0.5)
(0.322739 -0.171967 0.5)
(0.322916 -0.171542 -0.5)
(0.322916 -0.171542 0.5)
(0.323097 -0.171119 -0.5)
(0.323097 -0.171119 0.5)
(0.32328 -0.170696 -0.5)
(0.32328 -0.170696 0.5)
(0.323465 -0.170275 -0.5)
(0.323465 -0.170275 0.5)
(0.323653 -0.169855 -0.5)
(0.323653 -0.169855 0.5)
(0.323844 -0.169436 -0.5)
(0.323844 -0.169436 0.5)
(0.324038 -0.169019 -0.5)
(0.324038 -0.169019 0.5)
(0.324234 -0.168602 -0.5)
(0.324234 -0.168602 0.5)
(0.324433 -0.168187 -0.5)
(0.324433 -0.168187 0.5)
(0.324634 -0.167773 -0.5)
(0.324634 -0.167773 0.5)
(0.324838 -0.16736 -0.5)
(0.324838 -0.16736 0.5)
(0.325045 -0.166949 -0.5)
(0.325045 -0.166949 0.5)
(0.325254 -0.166539 -0.5)
(0.325254 -0.166539 0.5)
(0.325466 -0.16613 -0.5)
(0.325466 -0.16613 0.5)
(0.32568 -0.165723 -0.5)